Circuit: * C:\Users\SnigdhaYS\Documents\LTSpice_LDO_Automation\Externally_Compensated\Miller_LDO_Sim_Benches_502\LDO_Transient_IIIT.asc

Ignoring BSIM parameter XL
Ignoring BSIM parameter XW
Ignoring BSIM parameter XL
Ignoring BSIM parameter XW
Warning: Pd = 0 is less than W.
Warning: Ps = 0 is less than W.
Warning: Pd = 0 is less than W.
Warning: Ps = 0 is less than W.
Warning: Pd = 0 is less than W.
Warning: Ps = 0 is less than W.
Warning: Pd = 0 is less than W.
Warning: Ps = 0 is less than W.
Direct Newton iteration for .op point succeeded.

Date: Wed Nov 26 21:26:51 2025
Total elapsed time: 1.727 seconds.

tnom = 27
temp = 27
method = modified trap
totiter = 177094
traniter = 177087
tranpoints = 88540
accept = 70538
rejected = 18002
matrix size = 9
fillins = 0
solver = Normal
Matrix Compiler1: 708 bytes object code size  0.3/0.2/[0.2]
Matrix Compiler2: off  [0.2]/0.2/0.2

